! Generated on 2025/02/04 15:40:57
! Mech25_06_v2_C7.MECH
! - NUIG_C0_LT-HT.MECH
! - NUIG_C1-C2_LT-HT.MECH
! - NUIG_C3-C4_LT-HT.MECH
! - NUIG_C5_LT-HT.MECH
! - NUIG_C6_LT-HT.MECH
! - NUIG_C7_LT-HT.MECH
! - NUIG_C7_Branch_LT-HT.MECH
!\START_ELEMENTS_LIST
ELEMENTS
C H N O AR HE
END
!\END_ELEMENTS_LIST

!\START_SPECIES_LIST
SPECIES
HE                            H2                            H                             
O                             OH                            H2O                           
O2                            OHV                           N2                            
AR                            CO2                           CO                            
CH4                           H2O2                          HO2                           
HOCO                          OCHO                          CH3                           
CH2CO                         O2CHO                         HO2CHO                        
CH3O2                         CH3O2H                        CH2                           
CH2(S)                        HCO                           CH                            
CH2O                          C2H2                          C2H4                          
C3H3                          CHV                           C                             
CH3O                          CH2O2H                        CH2OH                         
HCOH                          CH3OH                         CH3OOCH3                      
HOCHO                         HOCH2O                        OCH2O2H                       
HOCH2O2                       HOCH2O2H                      C2H5                          
C2H6                          C2H5O2                        C2H5O2H                       
C2H3                          C2H5O                         C2H4O2H                       
C2H4O1-2                      C2-OOQOOH                     HO2CH2CHO                     
NC3H7O2H                      NC3H7O2                       IC3H7O2H                      
IC3H7O2                       C2H5OH                        CH3CHO                        
NC3H7O                        NC3H7OH                       C2H5CHO                       
IC3H7O                        IC3H7OH                       CH3COCH3                      
CH3CHOOH                      C2H3O1-2                      CH3CO                         
CH2CHO                        H2CC                          CH3CO3                        
CH3CO3H                       C2H3OO                        C2H3OOH                       
C2H3OH                        PC2H4OH                       CHCHO                         
CHOCHO                        C2H                           HCCOH                         
C2H2OH                        HCCO                          C2                            
C2O                           CH3CHOHOJ                     CH3COOH                       
CH2CO2                        O2CH2CHO                      HO2CH2CO                      
CH3CO2                        CH2COOH                       SC2H4OH                       
O2C2H4OH                      CH3OCH3                       CH3OCH2                       
CH3OCH2O2                     CH3OCH2O2H                    CH2OCHO                       
CH3OCHO                       CH3OCO                        CH2OCH2O2H                    
O2CH2OCH2O2H                  HO2CH2OCHO                    CH3OCH2O                      
OCH2OCHO                      CH2OO                         HOCH2OCO                      
C3H8                          NC3H7                         IC3H7                         
C3H5-A                        C3H5O                         C3H6                          
C3H6OOH1-2                    C3H6OOH1-3                    C3H6O1-2                      
C3H6OOH2-1                    C3H6O1-3                      C3H6OOH1-3O2                  
C3H6OOH1-2O2                  C3H6OOH2-1O2                  OCHCH2CH2O                    
AC3H5OOH                      C3H5O1-2OOH-3                 C3H51-2,3OOH                  
CH3COCH2O                     C2H4OCHO                      C3H5-SOOH                     
IC3H5Q                        C3KET21                       C3KET12                       
C3KET13                       C2H3CHO                       C3H4-A                        
C2H3CO                        C2H5CO                        CH3OCHCH2                     
SC3H5OH                       CJCYCCO                       CCYCCJO                       
CCYCCO-T1                     CH3CHCHO                      CH2CH2CHO                     
CH3CHCO                       CH3COCH2                      CH2CHOCH2                     
CC3H6                         C3H5-T                        C3H5-S                        
C3H4-P                        SC3H5OO                       CH3CCHO                       
CH2CHOCHO                     CH3COCHO                      TC3H5OO                       
CH2CCO                        CH2COCH2                      CH3COCH                       
CH2CHOCO                      CH2CHCHOH                     AC4H7OOH                      
C3H5OH                        IC3H5OH                       C3H6OH1-2                     
C3H6OH2-1                     C3H4O1-2                      PC3H4OH-2                     
CH2CCH2OH                     C3H5O31                       HOCH2CO                       
C3H5O32                       SC3H4OH                       CH2COHCH2O                    
CH2COHCH2OOH                  CH2COHCHO                     SC2H2OH                       
CH2COOHCH2                    CH2CCH2OOH                    CH2CHCH2OO                    
CCY(CCOO)                     CY(CCCOO)                     CY(CCO)CO                     
CH2COOCH2OOH                  CH2COOHCH2OO                  CH2COOHCHO                    
CH2COCHO                      CH2COOHCH2OOH                 CH2COOHCHOH                   
C3H4O21-2                     C2HCHO                        C3H2                          
CC3H4                         C4H4                          CH3CCO                        
C3H3O                         CH3COH                        CH3C(OH)CH                    
PC3H4OH-1                     C3H2C                         C4H3-N                        
C3H3O2H                       C3H2(S)                       H2CCC(S)                      
CH2OOHCHCO                    CH2OCHCO                      C3H6OH1-3                     
C3H6OH1-1                     TQJC3H6OH                     C3H6OH-1O2                    
C3H6OH-3O2                    TQC3H6OI                      QC3H5OHP                      
TQC3H5OHI                     CY(COC)COH                    CCY(COC)OH                    
QC3H5OHPO2                    C3H4OHOOH1-3-2                C3H4OH1KT2-3                  
C3H6OH-3OOH-1                 C3H6OH-3OOH-1O2               C3OHKET3-1                    
TC3H6OH                       IQJC3H6OH                     IQC3H5OHPJC                   
IQC3H6OT                      IQC3H5OHPJ                    C(OH)CY(COC)                  
CY(CCOC)OH                    CHOCOHCH3                     TQC3H5OHIO2                   
TQC3H5OHIQ-I                  TQC3H5OHIQ-P                  C2H3COHOOH                    
COHOOHCY(COC)                 OHCY(COCC)OOH                 TQC3H5OHTO2                   
OHCOCOOHCH3                   IQC3H5OHPJO2                  IQC3H5OTQ-I                   
IQC3H5OHQ-SJ                  CHOCOHCH2OOH                  CH3COCH2O2                    
CH2OHCHCHO                    CH3COHCO                      CH2OHCH(OO)CHO                
CH2OHCH(OOH)CO                CH2OCH(OOH)CHO                HOCH2CHO                      
C3H4OH1-OO3                   C2H3CHOHOJ                    C2H3COOH                      
C2H5COCH2                     NC4KET21                      NC3H7COCH2                    
NC5KET21                      NC3H7CO                       C6Y2-1J                       
C6KET21                       PC4H9CO                       C2H5CO3                       
C2H5CO3H                      CH3CH(OO)CHO                  O2CH2CH2CHO                   
QCH3CHCO3H                    QCH2CH2CO3H                   QCH3CH(OOH)CO                 
QHO2CH2CHCHO                  QHO2CH2CH2CO                  CH3#CHCOO#                    
CCH2COOCH2#                   CYC2H3OCHO                    C3H6O3                        
C4H8OOH1-3                    C4H8OOH2-4                    C4H10                         
PC4H9                         SC4H9                         C4H8OOH1-2                    
C4H8OOH1-2O2                  C4H8OOH1-3O2                  C4H8OOH1-4                    
C4H8OOH1-4O2                  C4H8OOH2-1                    C4H8OOH2-1O2                  
C4H8OOH2-3                    C4H8OOH2-3O2                  C4H8OOH2-4O2                  
PC4H9O2                       PC4H9O2H                      SC4H9O2                       
SC4H9O2H                      IC4H9O2                       IC4H9O2H                      
TC4H9O2                       TC4H9O2H                      C4H72-1OOH                    
C4H71-4OOH                    C4H71-3OOH                    NC4KET12                      
NC4KET13                      NC4KET14                      NC4KET23                      
NC4KET24                      C4H71-3,4OOH                  C4H72-3,4OOH                  
C4H71-2,4OOH                  C4H72-1,3OOH                  C4H72-1,4OOH                  
C4H71-2,3OOH                  PC4H9O                        SC4H9O                        
C4H7O1-3OOH-4                 C4H7O1-4OOH-2                 C4H7O2-3OOH-1                 
C4H7O1-3OOH-2                 C4H7O1-2OOH-4                 C4H7O1-2OOH-3                 
OCH2CHO                       C4H8-1                        C4H8-2                        
C4H71-3                       C4H71-O                       C4H8O1-2                      
C4H8O1-3                      C4H8O1-4                      C4H8O2-3                      
C2H5COCH3                     CH2CH2COCH3                   C4H7O12-4                     
C4H7O13-4                     C4H7O23-1                     IC4H8O2H-I                    
IC4H8OOH-IO2                  IC4H8O2H-T                    IC4H8OOH-TO2                  
TC4H8O2H-I                    TC4H8OOH-IO2                  IC4H9                         
IC4H8                         TC4H9                         IC4H10                        
IC4KETII                      IC4KETIT                      IC4H7OOH                      
TIC4H7Q2-I                    IIC4H7Q2-I                    IIC4H7Q2-T                    
IC3H7CHO                      ET12IC4-1OOH                  TC4H9O                        
IC4H9O                        IC4H7                         IC4H7O                        
CC4H8O                        IC4H8O                        TC3H6CHO                      
SC4H7OH-I                     IC3H7CO                       IC3H6CHO                      
IC3H5CHO                      IC3H6CO                       TC3H6OCHO                     
IC3H6OHCHO                    IC3H5CO                       IC3H4CHO-A                    
SC4H7OH-IP                    SC4H7O-I                      SC4H7OOH-I                    
IC4H6OH                       IC4H7-I1                      IC4H7O2                       
IC4H7OH                       IC4H7-I1OO                    IC4H7O-1                      
IC4H6OOH-I                    CCYCCOOC-T1                   C2CYCOOC-I1                   
CVCYCCOC                      CCYC2OCO                      CCYCCOOC-I2                   
CHOIC3H6O                     IC3H5OOCH2                    IC4H8OH-IT                    
IC4H8OH-TI                    OVCC(VC)COJ                   OVCC(VC)COOH                  
IC4YAA                        IC4YAA-R                      IC4H6Q2-II                    
IC4QA-AOJ                     CVC(COOJ)COOH                 C4H71-4                       
C4H71-1                       C4H71-2                       C2H5CHCO                      
PC4H8OH-2                     SC4H8OH-1                     C4H71-3O2                     
C4H72-1O2                     C4H6                          C4H612                        
C4H6-1                        C4H71-1O2                     C2H5CCHO                      
C3H6CHO-1                     SC3H5CHO                      C2H5COCHO                     
C4H71-2O2                     C2H5COCH                      C2H4COCH2                     
C4H72-2                       C4H7O2-1                      C2H3COCH3                     
C4H71-4O2                     C4H7O1-4                      C4H61-3OOH4                   
C4H72OO1-3                    C4H71OO2-3                    C4H7O1-2O-3                   
C4H7O2-3O-1                   C4H72OO1-4                    C4H71OO2-4                    
C4H7O1-2O-4                   AC3H5OCH2                     SC3H5OCH2-1                   
C3H6CHO-2                     C4H5-3                        C4H5-4                        
C4H6-2                        C2H5CCO                       CH3C3H2O                      
SC3H5CO                       C2H5CCHOH                     C2H5COHCH                     
C4H5-I                        C4H5-N                        C4H5-2                        
BUTA123TRIENE                 IC5T1                         C5H82-3                       
C2HCOCH3                      C4H612OOH                     C4H5O1-4                      
C4H5-4O2                      C2H5COH                       C4H4O                         
CH3CHCCO                      C4H63,1-1OH                   C4H5-4O2H                     
C4H6OHOOH1-1-3                CH3CHOCHCHOH                  CH3COCHCHOH                   
C4H63,1-3OH                   C4H6OHOOH2-2-4                CH3COHCHCH2O                  
CH2COHCHCHO                   C4H72-2OH                     C4H72-2O2                     
CH3CHCOCH3                    CH3COCOCH3                    CH3CCOCH3                     
SC4H8OH-3                     NC4H9OH                       PC4H8OH-1                     
PC4H8OH-3                     PC4H8OH-4                     C4H71-1OH                     
NC3H7CHO                      C4H72-1OH                     PC4H8OH-1O2                   
PC4H8OH-3O2                   PC4H8OH-4O2                   PC4H8OH-2O2                   
PC4H8OH-1O                    PC4H8OH-2O                    PC4H8OH-3O                    
PC4H8OH-4O                    C4H7OH-1OOH-2                 C4H7OH-1OOH-3                 
SQC4H8OP                      SQC4H7OHP-1                   SQC4H7OHP-3                   
SQC4H7OHP-4                   C4H7OH-3OOH-1                 C4H7OH-3OOH-4                 
C4H7OH-3OOH-2                 C4H7OH-4OOH-3                 C4H7OH-4OOH-2                 
C4H7OH-4OOH-1                 C4H71-4OH                     PC4H8OH-2O2H                  
PC4H8OH-4O2H                  PQC4H7OHS-2                   C4H71-2OH                     
PQC4H7OHS-3                   C4H7OH1O1-2                   C4H7OHCYO1-3                  
C4H7OH1O2-3                   C4H7OHCYO3-4                  C4H7OHCYO1-4                  
CY(CCCO)COH                   C4H7OH2O1-2                   CCY(COCC)OH                   
PQC4H7OHS-4                   C4H7OH2O1-4                   CCY(COC)OHC                   
SQC4H7OHP-3O2                 SQC4H7OHP-4O2                 PQC4H7OHS-3O2                 
PQC4H7OHS-4O2                 C4H7OH-1OOH-2O2               C4H7OH-1OOH-3O2               
C4H7OH-2OOH-1O2               C4H7OH-3OOH-1O2               C4H7OH-4OOH-2O2               
NC4KET12OH-1                  NC4KET13OH-1                  NC4KET21OH-1                  
NC4KET31OH-1                  NC4KET42OH-1                  C4H6OHOOH1-4-3                
C4H6OHOOH2-2-1                C4H6OHOOH1-3-4                C4H6OH1KET2-3                 
NC4KET24OH-1                  NC4KET13OH-2                  C4H6OH2KET1-4                 
HOCHCHO                       C4H7O2-1,3OOH                 C4H63,1-2OH                   
C4H6OHOOH1-2-3                C4H61-2OH-3O2                 C4H61OOH3-2O                  
C4H64,2-1OH                   C4H5OH-13                     AC3H5CHO                      
CH2CHCHCHO                    CH2OHCHCHCHOH                 CHOC3H4OH                     
C4H51,3OH2                    C2H3COCH2                     NC4KET12OH                    
C2H5CHOHCO                    NC4KET21OH                    C2H4COCH2OH                   
C5H9OH1-4,3                   NC4KET24OH-3                  CH3COCHOH                     
SC4H8OH-1O2                   PQC4H8OS                      SQC4H7OHS-4O2                 
SC4H8OH-2                     SC4H8OH-3O2                   SQC4H8OS                      
SQC4H7OHS-4                   SQC4H7OHS-3                   C4H71-3OH                     
NC4KET23OH                    C4H61-3OH-3O                  CH3COCOHCH3                   
CH2COHCO                      TQJC4H8OH                     IQJC4H8OH                     
TQC4H8OI                      QC4H7OHP                      TQC4H7OHI                     
IQC4H8OT                      IQC4H7OHT                     CCY(CCO)COH                   
C2CY(COC)OH                   CCY(CCOC)OH                   TQC4H7OHIO2                   
IQC4H7OHTO2                   TQC4H7OHTO2                   HOCOCQ(CH3)2                  
CHOC(CH3)OHCH2Q               TQC4H7OHIQ-I                  TQC4H7OHIQ-P                  
IQC4H7OHTQ-P                  IQC4H8OTQ-I                   IC3H5COHQ                     
CH2CQCOHQ                     COHQCYC(COC)                  QCYC(CCOC)OH                  
CO(CH2OOH)2                   TC3H6O2HCO                    AC5H10                        
H15DE25DM                     H15DE25DM-S                   H15DE25DM-A                   
B13DE2M                       AC5H9-D                       H15DE25DM-AO                  
H15DE25DM-SO                  H15DE2M-T                     IC4H7CHO                      
IC4H7CO                       IC4H7CHO-A                    IC4H8OH                       
C5H8-2                        B12DE3M                       C6H6                          
C6H9-A                        C6H8                          CYHEXEN-4J                    
CYPENTN-4MJ                   CYPENTN-4M4J                  CYPENTN-4M3J                  
C5H6                          CYC6H7                        C6H7-2                        
C4H64,1-1OH                   C2H3CHOHCH2                   CH2CYC3H4OH                   
C5H9OH1-2                     CC5H9OH-A                     CC5H8OHA-B                    
CC5H8OHA-BO                   C4H64,1OH-2O2                 C2H3CHOHCH2OO                 
C4H64,OOH2-1O                 C4H54,1OHQ2-1                 C4H6OH1-3OO2-4                
C4H6OH1-4OO2-3                C4H5OH1O1-2                   C2H3COCHOH                    
C2H3COCHO                     C4H54,1OHQ2-1O2               C2H3COCHOHOOH                 
C4H61KET43                    C4H6OH1O3-4O-2                C4H6OH1O2-3O-4                
CVOCVCCOOH                    OVCCVCCOJ                     OVCCVCCVO                     
OVCCVCCJVO                    CJVCCVO                       C4H6O1-3OOH4                  
C4H51OH3Q4-3                  C4H61KET34                    C4H6OH3-2OO1-4                
C4H6OH3-1OO2-4                C4H6OH3O1-2O-4                C3H4CH2OH-3O                  
C3H4CH2OH-1OOH                C3H4CH2OH-1O                  C2H3COCH2OH                   
C2H3CHOHCO                    CHCHCH2OH                     CHOOCHCH2OH                   
C4H61OOH3-4                   C2H3CHOCH2                    C4H61-3,4OOH                  
C4H61-OOH3-OO4                C4H61-2OOH34                  C4H61-OOH34-OO2               
C4H412-OOH34                  C3H3CHO-OOH23                 C4H4O-OOH24                   
C4H61OOH4-3O2                 C4H61KET43O                   C4H512-OO4                    
C4H513-OO2                    CYCCCOO-3J                    CH2CYCOO-CH2                  
CYCOOC-CH2                    C2H3COOCH2                    CH2CHCHCHCCH                  
C4H5-2C2H                     C4H2                          C4H6O25                       
C4H6O23                       AC3H5CO                       CC3H5                         
CVCCVCCVO                     CH2CCOCH3                     SC4H6OH-2                     
C4H3-I                        CH3COHOJCOCH3                 CH2CCO2HCH3                   
CH3CHOOCOCH3                  H2C4O                         C3H6CHO-3                     
C3H6CHO-1O2                   C3H6CHO-2O2                   C3H6CHO-3O2                   
C3H6COQ1                      C3H5CHOQ1-3                   C3H6COQ2                      
C3H5CHOQ2-1                   C3H6COQ3                      C3H5CHOQ3-1                   
C3H5CHOQ3-2                   CYC3H5OCHO                    CH3CYC2H2OCHO                 
CYC2H3OCH2CHO                 C3H5CHOQ1-3O2                 C3H5CHOQ2-1O2                 
C3H5CHOQ3-1O2                 C2H4COCHOQ3                   CH3COCHCHOQ1                  
CHOCH2CHCHOQ1                 CH3CHOOHCHCO                  CH3CHOCHCO                    
OVCCVCVO                      FURAN                         CH2CHOOHCOCH3                 
C8H141-5,3-4                  C8H131-5,3-4,TA               I3C6D25                       
C8H131-5,3-4,TAO              C8H141-5,3                    C8H131-5,3,TA                 
C8H131-5,3,SA                 C8H131-5,3,PA                 C6H10D24                      
C8H131-5,3,TAO                C8H131-5,3,SAO                C8H131-5,3,PAO                
C7H111-5,3,6P                 CC5H9-A                       C8H142-6                      
C8H132-6,SA                   C8H132-6,PA                   C5H81-3                       
C8H132-6,SAO                  C8H132-6,PAO                  C7H111-5,1P                   
C5H92-5                       C5H10OOH1-2                   C5H10O1-2                     
C5H10OOH1-3                   C5H10O1-3                     C5H10OOH1-4                   
C5H10O1-4                     C5H10OOH1-5                   C5H10O1-5                     
C5H10OOH2-1                   C5H10OOH2-3                   C5H10O2-3                     
C5H10OOH2-4                   C5H10O2-4                     C5H10OOH2-5                   
C5H10OOH3-1                   C5H10OOH3-2                   NC5H12                        
C5H11-1                       C5H11-2                       C5H11-3                       
C5H10-1                       C5H10-2                       C5H11O2-1                     
C5H11O2H-1                    C5H11O2-2                     C5H11O2H-2                    
C5H11O2-3                     C5H11O2H-3                    CC5H10                        
DC5H11                        CC5H11                        BC5H11                        
AC5H11                        BC5H10                        C5H10OOH1-2O2                 
C5H10OOH1-3O2                 C5H10OOH1-4O2                 C5H10OOH1-5O2                 
C5H10OOH2-4O2                 C5H10OOH2-5O2                 C5H10OOH3-1O2                 
C5H92-1OOH                    C5H92-5OOH                    C5H91-5OOH                    
C5H92-4OOH                    C5H91-4OOH                    C5H91-3OOH                    
C5H92-4,5OOH                  C5H92-3,5OOH                  C5H91-3,5OOH                  
C5H92-1,4OOH                  C5H93-1,4OOH                  C5H91-2,5OOH                  
C5H92-1,5OOH                  C5H91-2,4OOH                  NC5KET12                      
NC5KET13                      NC5KET14                      NC5KET15                      
NC5KET24                      NC5KET25                      NC5KET31                      
C5H11O-1                      C5H11O-2                      C5H11O-3                      
PC4H9CHO                      NC3H7COCH3                    C2H5COC2H5                    
NC5KET12O                     NC5KET13O                     NC5KET14O                     
NC5KET15O                     NC5KET21O                     NC5KET24O                     
NC5KET25O                     NC5KET31O                     NC5H11OH                      
NC5DIONE13                    NC5DIONE24                    C5H9O1-2OOH-4                 
C5H9O1-4OOH-2                 C5H9O1-2OOH-5                 C5H9O1-3OOH-5                 
C5H9O2-4OOH-1                 C5H9O2-3OOH-5                 C5H9O1-4OOH-3                 
C5H9O1-2O-5                   CH2CH2OCH2CH2CHO              AC5H10OOH-A                   
A-AC5H10O                     AC5H10OOH-B                   A-BC5H10O                     
AC5H10OOH-C                   A-CC5H10O                     AC5H10OOH-D                   
A-DC5H10O                     BC5H10OOH-A                   BC5H10OOH-C                   
B-CC5H10O                     BC5H10OOH-D                   B-DC5H10O                     
CC5H10OOH-A                   CC5H10OOH-B                   CC5H10OOH-D                   
C-DC5H10O                     DC5H10OOH-A                   DC5H10OOH-B                   
DC5H10OOH-C                   IC5H12                        AC5H11O2                      
AC5H11O2H                     BC5H11O2                      BC5H11O2H                     
CC5H11O2                      CC5H11O2H                     DC5H11O2                      
DC5H11O2H                     AC5H10OOH-AO2                 AC5H10OOH-BO2                 
AC5H10OOH-CO2                 AC5H10OOH-DO2                 BC5H10OOH-AO2                 
BC5H10OOH-CO2                 BC5H10OOH-DO2                 CC5H10OOH-AO2                 
CC5H10OOH-BO2                 CC5H10OOH-DO2                 DC5H10OOH-AO2                 
DC5H10OOH-BO2                 DC5H10OOH-CO2                 C5H9A-AOOH                    
C5H9B-AOOH                    C5H9C-AOOH                    C5H9C-BOOH                    
C5H9A-COOH                    C5H9A-DOOH                    C5H9B-DOOH                    
C5H9B-A,AOOH                  C5H9C-A,AOOH                  C5H9D-A,AOOH                  
C5H9A-A,BOOH                  C5H9C-A,BOOH                  C5H9D-A,BOOH                  
C5H9A-A,COOH                  C5H9B-A,COOH                  C5H9D-A,COOH                  
C5H9A-A,DOOH                  C5H9B-A,DOOH                  C5H9C-A,DOOH                  
C5H9A-B,COOH                  C5H9D-B,COOH                  C5H9A-B,DOOH                  
C5H9C-B,DOOH                  C5H9A-C,DOOH                  C5H9B-C,DOOH                  
IC5KETAA                      IC5KETAB                      IC5KETAC                      
IC5KETAD                      IC5KETCA                      IC5KETCB                      
IC5KETCD                      IC5KETDA                      IC5KETDB                      
IC5KETDC                      AC5H11O                       BC5H11O                       
CC5H11O                       DC5H11O                       IC5KETAAO                     
IC5KETABO                     IC5KETACO                     IC5KETADO                     
IC5KETCAO                     IC5KETCBO                     IC5KETCDO                     
IC5KETDAO                     IC5KETDBO                     IC5KETDCO                     
C5H9OA-AOOH-B                 C5H9OA-BOOH-A                 C5H9OA-AOOH-C                 
C5H9OA-COOH-A                 C5H9OA-AOOH-D                 C5H9OA-DOOH-A                 
C5H9OA-BOOH-C                 C5H9OA-COOH-B                 C5H9OA-BOOH-D                 
C5H9OA-DOOH-B                 C5H9OA-COOH-D                 C5H9OA-DOOH-C                 
C5H9OB-COOH-A                 C5H9OB-DOOH-A                 C5H9OB-COOH-D                 
C5H9OB-DOOH-C                 C5H9OC-DOOH-A                 C5H9OC-DOOH-B                 
CH3COCH2OCH2CH2               IC3H5COCH3                    IC3H5COCH2                    
AC3H4COCH3                    NEOC5H12                      NEOC5H11                      
NEOC5H11O2                    NEOC5H11O2H                   NEOC5H11O                     
NEOC5H10OOH                   NEO-C5H10O                    NEOC5H10OOH-O2                
NEOC5H9Q2                     NEOC5KET                      NEOC5KETOX                    
NEOC5H9O-OOH                  TC4H8CHO                      NEOC5KEJOL                    
C5H91-3                       C5H91-4                       C5H91-5                       
C5H92-4                       C5H91-1                       C5H91-2                       
AC5H9-A1                      AC5H9-A2                      AC5H9-C                       
BC5H9-C                       CC5H9-B                       CC5H9-C                       
CC5H9-D                       C5H92-2                       C5H92-3                       
C6H12-3                       I3C6D1                        IC6D3                         
PC4H8CHO-1                    CH3CH2CHCOCH3                 CH3CHCOC2H5                   
C5H10OH12                     C5H10OH21                     C5H10OH23                     
C5H10OH32                     CH2CYC3H4CH3                  CYC5H9                        
CH3CYC3H3CH3-3                CYC4H6-2-CH3                  C5H8D14                       
CYC4H6-3-CH3                  CYC3H4C2H5-2                  C5H81-2                       